/*--------------------------------*- C++ -*----------------------------------*\
| =========                 |                                                 |
| \\      /  F ield         | OpenFOAM: The Open Source CFD Toolbox           |
|  \\    /   O peration     | Version:  2.0.x                                 |
|   \\  /    A nd           | Web:      www.OpenFOAM.org                      |
|    \\/     M anipulation  |                                                 |
\*---------------------------------------------------------------------------*/
FoamFile
{
    version     2.0;
    format      ascii;
    class       dictionary;
    object      turbineProperties;
}
// * * * * * * * * * * * * * * * * * * * * * * * * * * * * * * * * * * * * * //

//Geometric characteristics
NumBl                   3;          //*Number of blades
TipRad                  2.25;       //*Tip radius
HubRad                  0.27;       //*Hub radius
TowerHt                 5;          //*Tower height 
UndSling                0.0;        //Distance from the  edge of the shaft to the apex of cone of rotation
OverHang                -3;     	//Over hang: Distance from hub center of mass to yaw axis parallel to shaft axis
Twr2Shft                0;          //Distance fron tower to shaft
ShftTilt                0;          //Shaft tilt (Angle of tilt of the shaft)
PreCone                 (0 0);      //Precone (Angle of tilt of the blades from the shaft normal)

//Inertial properties
GenIner                 0;          //Moment of inertia of the high speed portion of the drive train
HubIner                 0;          //Moment of inertia of the hub
BladeIner               0;          //Moment of inertia of the blades 

//Controllers and limiters
TorqueControllerType    "none";
YawControllerType       "none";
PitchControllerType     "none";
GenTorqueControllerType "none";
NacYawControllerType    "none";
BladePitchControllerType "none";
RotSpeedLimiter         false;
GenTorqueLimiter        false;
GenTorqueRateLimiter    false;
NacYawRateLimiter       false;
BladePitchRateLimiter   false;

//Not found
RatedRotSpeed           5.0;
SpeedFilterCornerFrequency  1.0;

//Drivetrain
GBRatio                 1;          //Total gear box ratio . 1 for direct drive turbines 
GBEfficiency		    1.0;        //Gear box efficiency
GenEfficiency		    1.0;        //Generator efficiency


GenTorqueControllerParams
{
    CutInGenSpeed           670.0;
    RatedGenSpeed          1173.7;
    Region2StartGenSpeed    871.0;
    Region2EndGenSpeed     1161.963;
    CutInGenTorque            0.0;
    RatedGenTorque           43.09355E3;
    RateLimitGenTorque       15.0E3;
    KGen                      2.55764E-2;
    TorqueControllerRelax     1.0;
}


BladePitchControllerParams
{
    PitchControlStartPitch    0.0;
    PitchControlEndPitch      7.6;
    PitchControlStartSpeed    15.77;
    PitchControlEndSpeed      16.0;
    RateLimitBladePitch       4.5;
}


NacYawControllerParams
{
    RateLimitNacYaw           2.0;
}

Airfoils
(
    "Cylinder1" 
    "DU91-W2-250" 
    "RISOE-A1-21"  
    "NACA_64-418"  

);


BladeData
(
//  radius(m)   c(m)    twist(deg)  airfoil 
(   0.450       0.240   16.4        1       )
(   0.675       0.207   12.1        1       )
(   0.900       0.178   8.3         1       )
(   1.025       0.166   7.1         1       )
(   1.225       0.150   5.5         2       )
(   1.350       0.142   4.8         2       )
(   1.475       0.134   4.0         2       )
(   1.675       0.123   3.2         3       )
(   1.800       0.116   2.6         3       )
(   2.025       0.102   1.5         3       )
(   2.165       0.092   0.7         3       )
(   2.250       0       0           3       )
);
