/*--------------------------------*- C++ -*----------------------------------*\
| =========                 |                                                 |
| \\      /  F ield         | OpenFOAM: The Open Source CFD Toolbox           |
|  \\    /   O peration     | Version:  2.4.0                                 |
|   \\  /    A nd           | Web:      www.OpenFOAM.org                      |
|    \\/     M anipulation  |                                                 |
\*---------------------------------------------------------------------------*/
FoamFile
{
    version     2.0;
    format      ascii;
    class       polyBoundaryMesh;
    location    "constant/polyMesh";
    object      boundary;
}
// * * * * * * * * * * * * * * * * * * * * * * * * * * * * * * * * * * * * * //

5
(
    outlet
    {
        type            patch;
        nFaces          10000;
        startFace       4460000;
    }
    sides
    {
        type            patch;
        nFaces          30000;
        startFace       4470000;
    }
    inlet
    {
        type            patch;
        nFaces          10000;
        startFace       4500000;
    }
    ground
    {
        type            wall;
        inGroups        1(wall);
        nFaces          15000;
        startFace       4510000;
    }
    top
    {
        type            patch;
        nFaces          15000;
        startFace       4525000;
    }
)

// ************************************************************************* //
